/*--------------------------------*- C++ -*----------------------------------*\
  =========                 |
  \\      /  F ield         | OpenFOAM: The Open Source CFD Toolbox
   \\    /   O peration     | Website:  https://openfoam.org
    \\  /    A nd           | Version:  11
     \\/     M anipulation  |
\*---------------------------------------------------------------------------*/
FoamFile
{
    format      ascii;
    class       volScalarField;
    location    "0";
    object      epsilon;
}
// * * * * * * * * * * * * * * * * * * * * * * * * * * * * * * * * * * * * * //

dimensions      [0 2 -3 0 0 0 0];

internalField   uniform 0.01;

boundaryField
{
    human
    {
        type            epsilonWallFunction;
        value           uniform 0.01;
    }
    floor
    {
        type            epsilonWallFunction;
        value           uniform 0.01;
    }

    ceiling
    {
        type            epsilonWallFunction;
        value           uniform 0.01;
    }

    sideWalls
    {
        type            epsilonWallFunction;
        value           uniform 0.01;
    }

    inlet
    {
	type		fixedValue;
	value		$internalField;
    }

    outlet
    {
	type		fixedValue;
	value		$internalField;
    }
}


// ******************************caesar_wiratama*************************** //